XCOMM $XConsortium: Imakefile /main/34 1996/10/27 11:05:08 kaleb $





XCOMM $XFree86: xc/programs/Xserver/hw/xfree86/common/Imakefile,v 3.95 1999/04/17 09:08:34 dawes Exp $



#include <Server.tmpl>

#ifdef i386MachArchitecture
#ifdef GNUMachArchitecture
        KBD = xf86Kbd
#else
        KBD = xf86KbdMach
#endif /* GNUMachArchitecture */
#else
# ifdef i386BsdArchitecture
        KBD = xf86KbdBSD
# else
#  ifdef LinuxArchitecture
        KBD = xf86KbdLnx
#  else
        KBD = xf86Kbd
#  endif
# endif
#endif

#if BuildXKB
     XKBDDXSRC = xf86XKB.c
     XKBDDXOBJ = xf86XKB.o
#endif

#if BuildXInputExt
 XF86_XINPUT_SRC = xf86Xinput.c xf86Switch.c xisb.c
 XF86_XINPUT_OBJ = xf86Xinput.o xf86Switch.o xisb.o
#endif

MODPATHDEFINES = -DDEFAULT_MODULE_PATH=\"$(MODULEDIR)\"

#if DoLoadableServer
EXT_MODULES_DEFINES = $(GLX_DEFINES)
#endif

#if !defined(LynxOSArchitecture) && !defined(OS2Architecture)
    PNPMOUSESRCS = xf86PnPMouse.c
    PNPMOUSEOBJS = xf86PnPMouse.o
 PNPMOUSEDEFINES = -DPNP_MOUSE
#endif

#if defined(LinuxArchitecture) && defined(PpcArchitecture)
    KBDDEFINES = -DASSUME_CUSTOM_KEYCODES
#endif

#ifndef XF86ExpireServer
#define XF86ExpireServer	NO
#endif

#if XF86ExpireServer
      BETASRC = xf86Beta.c
      BETAOBJ = xf86Beta.o
     BETADEFS = -DDO_CHECK_BETA
#ifndef NeedXF86Beta
#define NeedXF86Beta YES
#endif
#endif

#ifndef NeedXF86Beta
#define NeedXF86Beta NO
#endif

#if XF86ExpireServer
EXP_FORCE_DEFINES = -DSHOW_BETA_MESSAGE -DEXPIRE_SERVER
#endif

SRCS =	\
	xf86Bus.c \
	xf86IniExt.c \
	xf86Config.c \
	xf86Cursor.c \
	xf86DGA.c \
	xf86DPMS.c \
	xf86DefModes.c \
	xf86DoScanPci.c \
	xf86Events.c \
	xf86Globals.c \
	xf86Helper.c \
	xf86Init.c \
	xf86Io.c \
	xf86Mode.c \
	xf86Mouse.c \
	$(PNPMOUSESRCS) \
	xf86Option.c \
	xf86VidMode.c \
	xf86fbman.c \
	xf86xv.c \
	xf86cmap.c\
	$(KBD).c \
	$(XF86_XINPUT_SRC) \
	$(XINPUT_DEV_SRCS) \
	$(XKBDDXSRC) \
	$(BETASRC) \
	$(SERVERSRCS)

OBJS = \
	xf86Bus.o \
	xf86Config.o \
	xf86Cursor.o \
	xf86DGA.o \
	xf86DPMS.o \
	xf86DefModes.o \
	xf86DoScanPci.o \
	xf86Events.o \
	xf86Globals.o \
	xf86Helper.o \
	xf86Io.o \
	xf86Mode.o \
	xf86Mouse.o \
	$(PNPMOUSEOBJS) \
	xf86Option.o \
	xf86VidMode.o \
	xf86fbman.o \
	xf86xv.o \
	xf86cmap.o\
	$(XF86_XINPUT_OBJ) \
	$(XKBDDXOBJ) \
	$(BETAOBJ) \
	$(KBD).o

OFILES = \
	xf86Init.o \
	xf86IniExt.o

   VGAINCLUDES = -I$(XF86SRC)/vgahw
   INCLUDES =	-I. -I$(XF86OSSRC) -I$(XF86OSSRC)/bus -I$(SERVERSRC)/mfb \
		-I$(SERVERSRC)/mi -I$(SERVERSRC)/include -I$(SERVERSRC)/os \
		-I$(XINCLUDESRC) -I$(SERVERSRC)/Xext -I$(EXTINCSRC) \
		-I$(SERVERSRC)/Xi -I$(XF86SRC)/ddc -I$(XF86SRC)/i2c \
		-I$(FONTLIBSRC)/include -I$(XF86SRC) -I$(XF86PARSERSRC) \
		-I$(XF86SRC)/loader $(VGAINCLUDES) -I$(XF86SRC)/rac



     OSNAME = OSName
   OSVENDOR = OSVendor
  OSNAMEDEF = -DOSNAME='"$(OSNAME)"' -DOSVENDOR='"$(OSVENDOR)"'
CONSDEFINES = XFree86ConsoleDefines
EXP_DEFINES = -DEXPIRY_TIME=XF86ServerExpiry $(EXP_FORCE_DEFINES)

    DEFINES =	$(XCONFIGDEFINES) $(CONSDEFINES) $(PNPMOUSEDEFINES) \
		$(KBDDEFINES)

AllTarget($(OFILES))

SpecialObjectRule(xf86Bus.o,xf86Bus.c,$(VGAINCLUDES))
SpecialObjectRule(xf86Init.o,xf86Init.c $(ICONFIGFILES),$(OSNAMEDEF) $(EXT_DEFINES) $(BETADEFS))
SpecialCObjectRule(xf86Events,$(ICONFIGFILES),$(EXT_DEFINES))
SpecialCObjectRule(xf86Globals,$(ICONFIGFILES),$(EXT_DEFINES) $(MODPATHDEFINES))

#if NeedXF86Beta
SpecialObjectRule($(BETAOBJ),$(BETASRC),$(EXP_DEFINES))
#endif

SpecialObjectRule(xf86IniExt.o,xf86IniExt.c $(ICONFIGFILES),$(EXT_DEFINES) $(EXT_MODULES_DEFINES))

NormalLibraryObjectRule()
NormalLibraryTarget(xf86,$(OBJS))

LinkFile(xf86IniExt.c,$(SERVERSRC)/mi/miinitext.c)
LinkSourceFile(xf86Version.h,..)
LinkSourceFile(xf86Pci.h,$(XF86OSSRC)/bus)

#ifndef OS2Architecture
DependTarget()
#endif
