
XCOMM $XFree86: xc/programs/Xserver/hw/xfree86/scanpci/Imakefile,v 1.2 1999/02/13 16:44:59 hohndel Exp $

#include <Server.tmpl>

MODPATHDEFINES = -DDEFAULT_MODULE_PATH=\"$(MODULEDIR)\"
   INCLUDES =	-I$(XF86SRC)/common -I$(XF86OSSRC) -I$(XF86OSSRC)/bus \
		-I$(SERVERSRC)/include -I$(SERVERSRC)/os \
		-I$(XINCLUDESRC) -I$(SERVERSRC)/Xext -I$(EXTINCSRC) \
		-I$(SERVERSRC)/Xi \
		-I$(FONTLIBSRC)/include -I$(XF86PARSERSRC) \
		-I$(XF86SRC)/loader $(VGAINCLUDES) -I$(XF86SRC)/rac

ModuleObjectRule()

xf86ScanPci.c: $(XF86SRC)/common/xf86PciInfo.h
xf86PciData.c: $(XF86SRC)/common/xf86PciInfo.h

LibraryModuleTarget(scanpci,xf86ScanPci.o)

InstallLibraryModule(scanpci,$(MODULEDIR),.)

LibraryModuleTarget(pcidata,xf86PciData.o)

InstallLibraryModule(pcidata,$(MODULEDIR),.)

DependTarget()
