
XCOMM $XFree86: xc/programs/Xserver/hw/xfree86/scanpci/Imakefile,v 1.4 1999/02/14 09:28:41 hohndel Exp $

#define IHaveModules
#include <Server.tmpl>

MODPATHDEFINES = -DDEFAULT_MODULE_PATH=\"$(MODULEDIR)\"
   INCLUDES =	-I$(XF86SRC)/common -I$(XF86OSSRC) -I$(XF86OSSRC)/bus \
		-I$(SERVERSRC)/include -I$(SERVERSRC)/os \
		-I$(XINCLUDESRC) -I$(SERVERSRC)/Xext -I$(EXTINCSRC) \
		-I$(SERVERSRC)/Xi \
		-I$(FONTLIBSRC)/include -I$(XF86PARSERSRC) \
		-I$(XF86SRC)/loader $(VGAINCLUDES) -I$(XF86SRC)/rac

SRCS = xf86ScanPci.c xf86PciData.c

ModuleObjectRule()

LibraryModuleTarget(scanpci,xf86ScanPci.o)

InstallLibraryModule(scanpci,$(MODULEDIR),.)

LibraryModuleTarget(pcidata,xf86PciData.o)

InstallLibraryModule(pcidata,$(MODULEDIR),.)

DependTarget()
